Microgrgrid2k15/MicrogridVersion1/Parameters/RedBookBranchDataFile/casePV=LoadSlack=22NewBranchDataInitLoads.raw
0 4.0


1 'Bus Name' 13.8 1 0.0000 0.0000 1 1 1.000000 0.000000
2 'Bus Name' 0.5 1 0.0000 0.0000 1 1 1.000000 0.000000
3 'Bus Name' 13.8 1 0.0000 0.0000 1 1 1.000000 0.000000
4 'Bus Name' 13.8 1 0.0000 0.0000 1 1 1.000000 0.000000
5 'Bus Name' 4.2 1 0.0000 0.0000 1 1 1.000000 0.000000
6 'Bus Name' 13.8 1 0.0000 0.0000 1 1 1.000000 0.000000
7 'Bus Name' 13.8 1 0.0000 0.0000 1 1 1.000000 0.000000
8 'Bus Name' 4.2 1 0.0000 0.0000 1 1 1.000000 0.000000
9 'Bus Name' 4.2 1 0.0000 0.0000 1 1 1.000000 0.000000
10 'Bus Name' 4.2 1 0.0000 0.0000 1 1 1.000000 0.000000
11 'Bus Name' 0.5 1 0.0000 0.0000 1 1 1.000000 0.000000
12 'Bus Name' 0.5 1 0.0000 0.0000 1 1 1.000000 0.000000
13 'Bus Name' 0.5 1 0.0000 0.0000 1 1 1.000000 0.000000
14 'Bus Name' 0.5 1 0.0000 0.0000 1 1 1.000000 0.000000
15 'Bus Name' 0.5 1 0.0000 0.0000 1 1 1.000000 0.000000
16 'Bus Name' 0.5 1 0.0000 0.0000 1 1 1.000000 0.000000
17 'Bus Name' 0.2 1 0.0000 0.0000 1 1 1.000000 0.000000
18 'Bus Name' 0.2 1 0.0000 0.0000 1 1 1.000000 0.000000
19 'Bus Name' 0.2 1 0.0000 0.0000 1 1 1.000000 0.000000
20 'Bus Name' 2.4 1 0.0000 0.0000 1 1 1.000000 0.000000
21 'Bus Name' 2.4 1 0.0000 0.0000 1 1 1.000000 0.000000
22 'Bus Name' 13.8 3 0.0000 0.0000 1 1 1.000000 0.000000
23 'Bus Name' 0.5 2 0.0000 0.0000 1 1 1.000000 0.000000
0
1 1 1 1 1 0.0000 0.0000 0 0 0 0
2 1 1 1 1 0.1864 0.1390 0 0 0 0
2 2 1 1 1 1.0000 0.4750 0 0 0 0
3 1 1 1 1 0.0000 0.0000 0 0 0 0
4 1 1 1 1 0.0000 0.0000 0 0 0 0
5 1 1 1 1 0.0000 0.0000 0 0 0 0
6 1 1 1 1 0.0000 0.0000 0 0 0 0
7 1 1 1 1 0.0000 0.0000 0 0 0 0
8 1 1 1 1 0.0000 0.0000 0 0 0 0
9 1 1 1 1 0.0000 0.0000 0 0 0 0
10 1 1 1 1 0.0000 0.0000 0 0 0 0
11 1 1 1 1 0.2200 0.0100 0 0 0 0
12 1 1 1 1 0.1400 0.0900 0 0 0 0
13 1 1 1 1 0.1600 0.0900 0 0 0 0
14 1 1 1 1 0.1860 0.1390 0 0 0 0
14 2 1 1 1 0.5200 0.5000 0 0 0 0
15 1 1 1 1 2.5000 1.2000 0 0 0 0
16 1 1 1 1 0.0900 0.0420 0 0 0 0
17 1 1 1 1 0.1400 0.0100 0 0 0 0
18 1 1 1 1 0.2800 0.1000 0 0 0 0
19 1 1 1 1 0.7800 0.4200 0 0 0 0
20 1 1 1 1 0.0000 0.0000 0 0 0 0
21 1 1 1 1 -3.5000 -0.0100 0 0 0 0
22 1 1 1 1 0.0000 0.0000 0 0 0 0
23 1 1 1 1 0.0000 0.0000 0 0 0 0
0
22 1 0.0000 0.0000 4.0000 -4.0000 1.0000 0 4.0000 0 0 0 0 0 1 0 4.0000 0.0000
23 1 0.0000 0.0000 1.0000 -1.0000 1.0000 0 4.0000 0 0 0 0 0 1 0 1.0000 0.0000
0
1	2	1	0.013358639	0.05018743	0.000132324	7	7	7	0	0	0	0	0	0	1
1	3	1	0.001143025	0.001811733	0.000299749	7	7	7	0	0	0	0	0	0	1
1	4	1	0.004719597	0.000929217	8.35473E-05	7	7	7	0	0	0	0	0	0	1
3	5	1	0.00907773	0.04987504	0.000299749	7	7	7	0	0	0	0	0	0	1
3	11	1	0.167611947	0.105140171	0.000132324	7	7	7	0	0	0	0	0	0	1
4	6	1	0.009439193	0.001858433	0.000167095	7	7	7	0	0	0	0	0	0	1
4	7	1	1.23503E-05	1.95757E-05	3.23878E-06	7	7	7	0	0	0	0	0	0	1
5	8	1	0.002225869	0.00043824	3.25375E-07	7	7	7	0	0	0	0	0	0	1
5	9	1	0.001483913	0.00029216	2.16917E-07	7	7	7	0	0	0	0	0	0	1
9	10	1	0.003783977	0.000745007	5.53137E-07	7	7	7	0	0	0	0	0	0	1
8	16	1	0.029644307	0.079008783	5.53137E-07	7	7	7	0	0	0	0	0	0	1
8	17	1	0.083705049	0.12797995	5.53137E-07	7	7	7	0	0	0	0	0	0	1
9	18	1	0.083705049	0.164696897	5.53137E-07	7	7	7	0	0	0	0	0	0	1
10	19	1	0.079921071	0.16395189	9.19728E-10	7	7	7	0	0	0	0	0	0	1
10	20	1	0.029799523	0.059752202	2.88794E-07	7	7	7	0	0	0	0	0	0	1
6	13	1	0.038460508	0.093168317	1.19353E-05	7	7	7	0	0	0	0	0	0	1
6	14	1	0.014665087	0.050263045	0.000132761	7	7	7	0	0	0	0	0	0	1
7	15	1	0.010152997	0.049235878	4.06466E-05	7	7	7	0	0	0	0	0	0	1
8	21	1	0.01196619	0.056241091	0	7	7	7	0	0	0	0	0	0	1
6	12	1	0.037954837	0.093068758	2.98383E-06	7	7	7	0	0	0	0	0	0	1
7	22	1	6.17517E-05	9.78786E-05	1.61939E-05	7	7	7	0	0	0	0	0	0	1
2	23	1	0.151228733	0.053875236	7.35131E-09	7	7	7	0	0	0	0	0	0	1
0
0
0
0
0
0
0
0
0
0
0
0
